<?xml version="1.0" encoding="UTF-8"?>

<!-- generated on Mon 08 Aug 2022 02:46:11 PM PDT by Eclipse SUMO netedit Version 1.4.0
<configuration xmlns:xsi="http://www.w3.org/2001/XMLSchema-instance" xsi:noNamespaceSchemaLocation="http://sumo.dlr.de/xsd/netconvertConfiguration.xsd">

    <input>
        <sumo-net-file value="/home/songanz/flow_evaluation/sumo_env_config/sumo_CA_car_small/sID_0.net.xml"/>
    </input>

    <output>
        <output-file value="/home/songanz/flow_evaluation/sumo_env_config/sumo_CA_car_small/sID_0.net.xml"/>
        <output.street-names value="true"/>
    </output>

    <processing>
        <geometry.min-radius.fix.railways value="false"/>
        <geometry.max-grade.fix value="false"/>
        <offset.disable-normalization value="true"/>
        <lefthand value="false"/>
    </processing>

    <junctions>
        <no-turnarounds value="true"/>
        <junctions.corner-detail value="5"/>
        <junctions.limit-turn-speed value="5.5"/>
        <rectangular-lane-cut value="false"/>
    </junctions>

    <pedestrian>
        <walkingareas value="false"/>
    </pedestrian>

    <netedit>
        <route-files value="/home/songanz/flow_evaluation/sumo_env_config/sumo_CA_car_small/only_agent.rou.xml"/>
    </netedit>

    <report>
        <aggregate-warnings value="5"/>
    </report>

</configuration>
-->

<routes xmlns:xsi="http://www.w3.org/2001/XMLSchema-instance" xsi:noNamespaceSchemaLocation="http://sumo.dlr.de/xsd/routes_file.xsd">
    <route edges="903925260-AddedOffRampEdge 8925261 27878358#1-AddedOnRampEdge 27878358#1 684004595 27422574#0 27422574#1 27422574#1-AddedOffRampEdge 986554855 114111902-AddedOnRampEdge" color="yellow" id="route_0"/>
</routes>
