<?xml version="1.0" encoding="UTF-8"?>

<!-- generated on Tue 24 May 2022 12:13:55 PM PDT by Eclipse SUMO netedit Version 1.4.0
<configuration xmlns:xsi="http://www.w3.org/2001/XMLSchema-instance" xsi:noNamespaceSchemaLocation="http://sumo.dlr.de/xsd/netconvertConfiguration.xsd">

    <input>
        <sumo-net-file value="/home/songanz/flow_evaluation/sumo_CA_car/sID_0.net.xml"/>
    </input>

    <output>
        <output-file value="/home/songanz/flow_evaluation/sumo_CA_car/sID_0.net.xml"/>
        <output.street-names value="true"/>
    </output>

    <processing>
        <geometry.min-radius.fix.railways value="false"/>
        <geometry.max-grade.fix value="false"/>
        <offset.disable-normalization value="true"/>
        <lefthand value="false"/>
    </processing>

    <junctions>
        <no-turnarounds value="true"/>
        <junctions.corner-detail value="5"/>
        <junctions.limit-turn-speed value="5.5"/>
        <rectangular-lane-cut value="false"/>
    </junctions>

    <pedestrian>
        <walkingareas value="false"/>
    </pedestrian>

    <report>
        <aggregate-warnings value="5"/>
    </report>

</configuration>
-->

<net version="1.3" junctionCornerDetail="5" limitTurnSpeed="5.50" xmlns:xsi="http://www.w3.org/2001/XMLSchema-instance" xsi:noNamespaceSchemaLocation="http://sumo.dlr.de/xsd/net_file.xsd">

    <location netOffset="-548902.15,-4134743.37" convBoundary="680.17,3349.46,26004.55,31536.43" origBoundary="-122.445904,37.357867,-122.151212,37.643804" projParameter="+proj=utm +zone=10 +ellps=WGS84 +datum=WGS84 +units=m +no_defs"/>

    <type id="highway.bridleway" priority="1" numLanes="1" speed="2.78" allow="pedestrian" oneway="1" width="2.00"/>
    <type id="highway.bus_guideway" priority="1" numLanes="1" speed="27.78" allow="bus" oneway="1"/>
    <type id="highway.cycleway" priority="1" numLanes="1" speed="8.33" allow="bicycle" oneway="0" width="1.00"/>
    <type id="highway.footway" priority="1" numLanes="1" speed="2.78" allow="pedestrian" oneway="1" width="2.00"/>
    <type id="highway.ford" priority="1" numLanes="1" speed="2.78" allow="army" oneway="0"/>
    <type id="highway.living_street" priority="2" numLanes="1" speed="2.78" disallow="tram rail_urban rail rail_electric rail_fast ship" oneway="0"/>
    <type id="highway.motorway" priority="14" numLanes="2" speed="39.44" allow="private emergency authority army vip passenger hov taxi bus coach delivery truck trailer motorcycle evehicle custom1 custom2" oneway="1"/>
    <type id="highway.motorway_link" priority="9" numLanes="1" speed="22.22" allow="private emergency authority army vip passenger hov taxi bus coach delivery truck trailer motorcycle evehicle custom1 custom2" oneway="1"/>
    <type id="highway.path" priority="1" numLanes="1" speed="2.78" allow="pedestrian bicycle" oneway="1" width="2.00"/>
    <type id="highway.pedestrian" priority="1" numLanes="1" speed="2.78" allow="pedestrian" oneway="1" width="2.00"/>
    <type id="highway.primary" priority="12" numLanes="2" speed="27.78" disallow="tram rail_urban rail rail_electric rail_fast ship" oneway="0"/>
    <type id="highway.primary_link" priority="7" numLanes="1" speed="22.22" disallow="tram rail_urban rail rail_electric rail_fast ship" oneway="0"/>
    <type id="highway.raceway" priority="15" numLanes="2" speed="83.33" allow="vip" oneway="0"/>
    <type id="highway.residential" priority="3" numLanes="1" speed="13.89" disallow="tram rail_urban rail rail_electric rail_fast ship" oneway="0"/>
    <type id="highway.secondary" priority="11" numLanes="1" speed="27.78" disallow="tram rail_urban rail rail_electric rail_fast ship" oneway="0"/>
    <type id="highway.secondary_link" priority="6" numLanes="1" speed="22.22" disallow="tram rail_urban rail rail_electric rail_fast ship" oneway="0"/>
    <type id="highway.service" priority="1" numLanes="1" speed="5.56" allow="pedestrian delivery bicycle" oneway="0"/>
    <type id="highway.stairs" priority="1" numLanes="1" speed="1.39" allow="pedestrian" oneway="1" width="2.00"/>
    <type id="highway.step" priority="1" numLanes="1" speed="1.39" allow="pedestrian" oneway="1" width="2.00"/>
    <type id="highway.steps" priority="1" numLanes="1" speed="1.39" allow="pedestrian" oneway="1" width="2.00"/>
    <type id="highway.tertiary" priority="10" numLanes="1" speed="22.22" disallow="tram rail_urban rail rail_electric rail_fast ship" oneway="0"/>
    <type id="highway.tertiary_link" priority="5" numLanes="1" speed="22.22" disallow="tram rail_urban rail rail_electric rail_fast ship" oneway="0"/>
    <type id="highway.track" priority="1" numLanes="1" speed="5.56" disallow="tram rail_urban rail rail_electric rail_fast ship" oneway="0"/>
    <type id="highway.trunk" priority="13" numLanes="2" speed="27.78" disallow="pedestrian bicycle tram rail_urban rail rail_electric rail_fast ship" oneway="0"/>
    <type id="highway.trunk_link" priority="8" numLanes="1" speed="22.22" disallow="pedestrian bicycle tram rail_urban rail rail_electric rail_fast ship" oneway="0"/>
    <type id="highway.unclassified" priority="4" numLanes="1" speed="13.89" disallow="tram rail_urban rail rail_electric rail_fast ship" oneway="0"/>
    <type id="highway.unsurfaced" priority="1" numLanes="1" speed="8.33" disallow="tram rail_urban rail rail_electric rail_fast ship" oneway="0"/>
    <type id="railway.highspeed" priority="21" numLanes="1" speed="69.44" allow="rail_fast" oneway="1"/>
    <type id="railway.light_rail" priority="19" numLanes="1" speed="27.78" allow="rail_urban" oneway="1"/>
    <type id="railway.preserved" priority="16" numLanes="1" speed="27.78" allow="rail" oneway="1"/>
    <type id="railway.rail" priority="20" numLanes="1" speed="44.44" allow="rail" oneway="1"/>
    <type id="railway.subway" priority="18" numLanes="1" speed="27.78" allow="rail_urban" oneway="1"/>
    <type id="railway.tram" priority="17" numLanes="1" speed="13.89" allow="tram" oneway="1"/>

    <edge id=":1001330968-AddedOnRampNode_0" function="internal">
        <lane id=":1001330968-AddedOnRampNode_0_0" index="0" allow="private emergency authority army vip passenger hov taxi bus coach delivery truck trailer motorcycle evehicle custom1 custom2" speed="29.06" length="0.30" shape="12054.50,15395.88 12054.23,15395.99"/>
        <lane id=":1001330968-AddedOnRampNode_0_1" index="1" allow="private emergency authority army vip passenger hov taxi bus coach delivery truck trailer motorcycle evehicle custom1 custom2" speed="29.06" length="0.30" shape="12053.35,15392.90 12053.08,15393.00"/>
        <lane id=":1001330968-AddedOnRampNode_0_2" index="2" allow="private emergency authority army vip passenger hov taxi bus coach delivery truck trailer motorcycle evehicle custom1 custom2" speed="29.06" length="0.30" shape="12052.20,15389.91 12051.93,15390.02"/>
        <lane id=":1001330968-AddedOnRampNode_0_3" index="3" allow="private emergency authority army vip passenger hov taxi bus coach delivery truck trailer motorcycle evehicle custom1 custom2" speed="29.06" length="0.30" shape="12051.06,15386.92 12050.77,15387.03"/>
        <lane id=":1001330968-AddedOnRampNode_0_4" index="4" allow="private emergency authority army vip passenger hov taxi bus coach delivery truck trailer motorcycle evehicle custom1 custom2" speed="29.06" length="0.30" shape="12049.91,15383.94 12049.62,15384.04"/>
        <lane id=":1001330968-AddedOnRampNode_0_5" index="5" allow="private emergency authority army vip passenger hov taxi bus coach delivery truck trailer motorcycle evehicle custom1 custom2" speed="29.06" length="0.30" shape="12048.76,15380.95 12048.47,15381.06"/>
    </edge>
    <edge id=":1016407632_0" function="internal">
        <lane id=":1016407632_0_0" index="0" allow="private emergency authority army vip passenger hov taxi bus coach delivery truck trailer motorcycle evehicle custom1 custom2" speed="22.22" length="8.02" shape="3893.82,29568.65 3896.14,29560.94"/>
        <lane id=":1016407632_0_1" index="1" allow="private emergency authority army vip passenger hov taxi bus coach delivery truck trailer motorcycle evehicle custom1 custom2" speed="22.22" length="8.02" shape="3896.89,29569.53 3899.20,29561.88"/>
    </edge>
    <edge id=":1016407632_2" function="internal">
        <lane id=":1016407632_2_0" index="0" allow="private emergency authority army vip passenger hov taxi bus coach delivery truck trailer motorcycle evehicle custom1 custom2" speed="22.22" length="7.93" shape="3900.01,29570.42 3902.26,29562.82"/>
    </edge>
    <edge id=":1067353342_0" function="internal">
        <lane id=":1067353342_0_0" index="0" allow="private emergency authority army vip passenger hov taxi bus coach delivery truck trailer motorcycle evehicle custom1 custom2" speed="29.06" length="8.11" shape="14060.26,10995.70 14065.98,10989.75"/>
        <lane id=":1067353342_0_1" index="1" allow="private emergency authority army vip passenger hov taxi bus coach delivery truck trailer motorcycle evehicle custom1 custom2" speed="29.06" length="8.11" shape="14062.60,10997.89 14068.25,10992.00"/>
        <lane id=":1067353342_0_2" index="2" allow="private emergency authority army vip passenger hov taxi bus coach delivery truck trailer motorcycle evehicle custom1 custom2" speed="29.06" length="8.11" shape="14064.94,11000.07 14070.52,10994.26"/>
        <lane id=":1067353342_0_3" index="3" allow="private emergency authority army vip passenger hov taxi bus coach delivery truck trailer motorcycle evehicle custom1 custom2" speed="29.06" length="8.11" shape="14067.28,11002.25 14072.79,10996.52"/>
    </edge>
    <edge id=":1067353342_4" function="internal">
        <lane id=":1067353342_4_0" index="0" allow="private emergency authority army vip passenger hov taxi bus coach delivery truck trailer motorcycle evehicle custom1 custom2" speed="25.64" length="8.36" shape="14058.07,10993.66 14063.71,10987.49"/>
    </edge>
    <edge id=":1067361143_0" function="internal">
        <lane id=":1067361143_0_0" index="0" allow="private emergency authority army vip passenger hov taxi bus coach delivery truck trailer motorcycle evehicle custom1 custom2" speed="22.22" length="8.03" shape="18171.05,8631.53 18169.90,8633.55 18169.46,8635.14 18169.06,8636.74 18168.02,8638.85"/>
        <lane id=":1067361143_0_1" index="1" allow="private emergency authority army vip passenger hov taxi bus coach delivery truck trailer motorcycle evehicle custom1 custom2" speed="22.22" length="8.03" shape="18171.05,8631.53 18169.47,8633.30 18168.11,8634.28 18166.79,8635.28 18165.31,8637.13"/>
    </edge>
    <edge id=":1067364259_0" function="internal">
        <lane id=":1067364259_0_0" index="0" allow="private emergency authority army vip passenger hov taxi bus coach delivery truck trailer motorcycle evehicle custom1 custom2" speed="25.64" length="7.75" shape="16715.99,9639.70 16718.29,9639.83 16719.86,9639.89 16721.44,9639.87 16723.74,9639.80"/>
    </edge>
    <edge id=":1067364259_1" function="internal">
        <lane id=":1067364259_1_0" index="0" allow="private emergency authority army vip passenger hov taxi bus coach delivery truck trailer motorcycle evehicle custom1 custom2" speed="29.06" length="7.96" shape="16716.02,9643.17 16723.85,9642.99"/>
        <lane id=":1067364259_1_1" index="1" allow="private emergency authority army vip passenger hov taxi bus coach delivery truck trailer motorcycle evehicle custom1 custom2" speed="29.06" length="7.96" shape="16716.05,9646.37 16723.96,9646.19"/>
        <lane id=":1067364259_1_2" index="2" allow="private emergency authority army vip passenger hov taxi bus coach delivery truck trailer motorcycle evehicle custom1 custom2" speed="29.06" length="7.96" shape="16716.08,9649.57 16724.08,9649.39"/>
        <lane id=":1067364259_1_3" index="3" allow="private emergency authority army vip passenger hov taxi bus coach delivery truck trailer motorcycle evehicle custom1 custom2" speed="29.06" length="7.96" shape="16716.11,9652.77 16724.19,9652.59"/>
    </edge>
    <edge id=":1086941974_0" function="internal">
        <lane id=":1086941974_0_0" index="0" allow="private emergency authority army vip passenger hov taxi bus coach delivery truck trailer motorcycle evehicle custom1 custom2" speed="22.22" length="7.95" shape="4366.17,28287.76 4371.96,28282.31"/>
    </edge>
    <edge id=":1087176400_0" function="internal">
        <lane id=":1087176400_0_0" index="0" allow="private emergency authority army vip passenger hov taxi bus coach delivery truck trailer motorcycle evehicle custom1 custom2" speed="22.22" length="8.20" shape="3791.34,30081.17 3791.37,30078.76 3791.01,30077.09 3790.67,30075.43 3790.73,30073.02"/>
        <lane id=":1087176400_0_1" index="1" allow="private emergency authority army vip passenger hov taxi bus coach delivery truck trailer motorcycle evehicle custom1 custom2" speed="22.22" length="8.20" shape="3791.34,30081.17 3791.87,30078.82 3792.60,30077.30 3793.35,30075.77 3793.90,30073.43"/>
        <lane id=":1087176400_0_2" index="2" allow="private emergency authority army vip passenger hov taxi bus coach delivery truck trailer motorcycle evehicle custom1 custom2" speed="22.22" length="8.20" shape="3794.52,30081.54 3795.04,30079.20 3795.78,30077.69 3796.52,30076.17 3797.08,30073.84"/>
    </edge>
    <edge id=":114111902-AddedOffRampNode_0" function="internal">
        <lane id=":114111902-AddedOffRampNode_0_0" index="0" allow="private emergency authority army vip passenger hov taxi bus coach delivery truck trailer motorcycle evehicle custom1 custom2" speed="29.06" length="8.16" shape="20973.12,6535.91 20971.95,6538.13 20971.83,6540.02 20971.71,6541.91 20970.55,6544.13"/>
        <lane id=":114111902-AddedOffRampNode_0_1" index="1" allow="private emergency authority army vip passenger hov taxi bus coach delivery truck trailer motorcycle evehicle custom1 custom2" speed="29.06" length="8.16" shape="20973.12,6535.91 20968.07,6542.11"/>
        <lane id=":114111902-AddedOffRampNode_0_2" index="2" allow="private emergency authority army vip passenger hov taxi bus coach delivery truck trailer motorcycle evehicle custom1 custom2" speed="29.06" length="8.16" shape="20970.64,6533.89 20965.58,6540.09"/>
        <lane id=":114111902-AddedOffRampNode_0_3" index="3" allow="private emergency authority army vip passenger hov taxi bus coach delivery truck trailer motorcycle evehicle custom1 custom2" speed="29.06" length="8.16" shape="20968.15,6531.87 20963.10,6538.07"/>
        <lane id=":114111902-AddedOffRampNode_0_4" index="4" allow="private emergency authority army vip passenger hov taxi bus coach delivery truck trailer motorcycle evehicle custom1 custom2" speed="29.06" length="8.16" shape="20965.67,6529.85 20960.62,6536.05"/>
    </edge>
    <edge id=":114111902-AddedOnRampNode_0" function="internal">
        <lane id=":114111902-AddedOnRampNode_0_0" index="0" allow="private emergency authority army vip passenger hov taxi bus coach delivery truck trailer motorcycle evehicle custom1 custom2" speed="29.06" length="8.00" shape="21904.93,6019.76 21897.46,6022.62"/>
        <lane id=":114111902-AddedOnRampNode_0_1" index="1" allow="private emergency authority army vip passenger hov taxi bus coach delivery truck trailer motorcycle evehicle custom1 custom2" speed="29.06" length="8.00" shape="21903.78,6016.77 21896.31,6019.63"/>
        <lane id=":114111902-AddedOnRampNode_0_2" index="2" allow="private emergency authority army vip passenger hov taxi bus coach delivery truck trailer motorcycle evehicle custom1 custom2" speed="29.06" length="8.00" shape="21902.63,6013.78 21895.17,6016.65"/>
        <lane id=":114111902-AddedOnRampNode_0_3" index="3" allow="private emergency authority army vip passenger hov taxi bus coach delivery truck trailer motorcycle evehicle custom1 custom2" speed="29.06" length="8.00" shape="21901.49,6010.79 21894.02,6013.66"/>
    </edge>
    <edge id=":119323818-AddedOffRampNode_0" function="internal">
        <lane id=":119323818-AddedOffRampNode_0_0" index="0" allow="private emergency authority army vip passenger hov taxi bus coach delivery truck trailer motorcycle evehicle custom1 custom2" speed="29.06" length="8.16" shape="1987.24,26777.38 1988.62,26775.28 1988.93,26773.42 1989.24,26771.55 1990.63,26769.46"/>
        <lane id=":119323818-AddedOffRampNode_0_1" index="1" allow="private emergency authority army vip passenger hov taxi bus coach delivery truck trailer motorcycle evehicle custom1 custom2" speed="29.06" length="8.16" shape="1987.24,26777.38 1992.89,26771.72"/>
        <lane id=":119323818-AddedOffRampNode_0_2" index="2" allow="private emergency authority army vip passenger hov taxi bus coach delivery truck trailer motorcycle evehicle custom1 custom2" speed="29.06" length="8.16" shape="1989.50,26779.64 1995.16,26773.98"/>
        <lane id=":119323818-AddedOffRampNode_0_3" index="3" allow="private emergency authority army vip passenger hov taxi bus coach delivery truck trailer motorcycle evehicle custom1 custom2" speed="29.06" length="8.16" shape="1991.77,26781.90 1997.42,26776.24"/>
        <lane id=":119323818-AddedOffRampNode_0_4" index="4" allow="private emergency authority army vip passenger hov taxi bus coach delivery truck trailer motorcycle evehicle custom1 custom2" speed="29.06" length="8.16" shape="1994.03,26784.16 1999.69,26778.50"/>
    </edge>
    <edge id=":119323818-AddedOnRampNode_0" function="internal">
        <lane id=":119323818-AddedOnRampNode_0_0" index="0" allow="private emergency authority army vip passenger hov taxi bus coach delivery truck trailer motorcycle evehicle custom1 custom2" speed="29.06" length="8.00" shape="1932.99,26831.74 1938.64,26826.08"/>
        <lane id=":119323818-AddedOnRampNode_0_1" index="1" allow="private emergency authority army vip passenger hov taxi bus coach delivery truck trailer motorcycle evehicle custom1 custom2" speed="29.06" length="8.00" shape="1935.25,26834.00 1940.90,26828.34"/>
        <lane id=":119323818-AddedOnRampNode_0_2" index="2" allow="private emergency authority army vip passenger hov taxi bus coach delivery truck trailer motorcycle evehicle custom1 custom2" speed="29.06" length="8.00" shape="1937.52,26836.26 1943.17,26830.60"/>
        <lane id=":119323818-AddedOnRampNode_0_3" index="3" allow="private emergency authority army vip passenger hov taxi bus coach delivery truck trailer motorcycle evehicle custom1 custom2" speed="29.06" length="8.00" shape="1939.78,26838.52 1945.43,26832.86"/>
    </edge>
    <edge id=":122189457#1-AddedOnRampNode_0" function="internal">
        <lane id=":122189457#1-AddedOnRampNode_0_0" index="0" allow="private emergency authority army vip passenger hov taxi bus coach delivery truck trailer motorcycle evehicle custom1 custom2" speed="39.44" length="8.00" shape="2117.13,30394.77 2110.19,30390.80"/>
        <lane id=":122189457#1-AddedOnRampNode_0_1" index="1" allow="private emergency authority army vip passenger hov taxi bus coach delivery truck trailer motorcycle evehicle custom1 custom2" speed="39.44" length="8.00" shape="2118.72,30391.99 2111.77,30388.03"/>
        <lane id=":122189457#1-AddedOnRampNode_0_2" index="2" allow="private emergency authority army vip passenger hov taxi bus coach delivery truck trailer motorcycle evehicle custom1 custom2" speed="39.44" length="8.00" shape="2120.31,30389.21 2113.36,30385.25"/>
        <lane id=":122189457#1-AddedOnRampNode_0_3" index="3" allow="private emergency authority army vip passenger hov taxi bus coach delivery truck trailer motorcycle evehicle custom1 custom2" speed="39.44" length="8.00" shape="2121.90,30386.44 2114.95,30382.47"/>
    </edge>
    <edge id=":122189457#2-AddedOffRampNode_0" function="internal">
        <lane id=":122189457#2-AddedOffRampNode_0_0" index="0" allow="private emergency authority army vip passenger hov taxi bus coach delivery truck trailer motorcycle evehicle custom1 custom2" speed="39.44" length="8.16" shape="1724.91,30190.57 1722.48,30189.95 1720.61,30190.27 1718.75,30190.60 1716.32,30189.98"/>
        <lane id=":122189457#2-AddedOffRampNode_0_1" index="1" allow="private emergency authority army vip passenger hov taxi bus coach delivery truck trailer motorcycle evehicle custom1 custom2" speed="39.44" length="8.16" shape="1724.91,30190.57 1717.71,30187.09"/>
        <lane id=":122189457#2-AddedOffRampNode_0_2" index="2" allow="private emergency authority army vip passenger hov taxi bus coach delivery truck trailer motorcycle evehicle custom1 custom2" speed="39.44" length="8.16" shape="1726.30,30187.69 1719.10,30184.21"/>
        <lane id=":122189457#2-AddedOffRampNode_0_3" index="3" allow="private emergency authority army vip passenger hov taxi bus coach delivery truck trailer motorcycle evehicle custom1 custom2" speed="39.44" length="8.16" shape="1727.70,30184.81 1720.49,30181.33"/>
        <lane id=":122189457#2-AddedOffRampNode_0_4" index="4" allow="private emergency authority army vip passenger hov taxi bus coach delivery truck trailer motorcycle evehicle custom1 custom2" speed="39.44" length="8.16" shape="1729.09,30181.93 1721.88,30178.45"/>
    </edge>
    <edge id=":123867353-AddedOffRampNode_0" function="internal">
        <lane id=":123867353-AddedOffRampNode_0_0" index="0" allow="private emergency authority army vip passenger hov taxi bus coach delivery truck trailer motorcycle evehicle custom1 custom2" speed="39.44" length="8.26" shape="3635.92,30760.71 3638.11,30761.97 3639.98,30762.24 3641.82,30762.54 3643.93,30763.89"/>
        <lane id=":123867353-AddedOffRampNode_0_1" index="1" allow="private emergency authority army vip passenger hov taxi bus coach delivery truck trailer motorcycle evehicle custom1 custom2" speed="39.44" length="8.26" shape="3635.92,30760.71 3641.73,30766.21"/>
        <lane id=":123867353-AddedOffRampNode_0_2" index="2" allow="private emergency authority army vip passenger hov taxi bus coach delivery truck trailer motorcycle evehicle custom1 custom2" speed="39.44" length="8.26" shape="3633.71,30763.03 3639.52,30768.53"/>
    </edge>
    <edge id=":1293038719_0" function="internal">
        <lane id=":1293038719_0_0" index="0" allow="private emergency authority army vip passenger hov taxi bus coach delivery truck trailer motorcycle evehicle custom1 custom2" speed="21.17" length="8.10" shape="15956.28,9578.41 15958.52,9577.56 15959.92,9576.63 15961.34,9575.74 15963.60,9574.99"/>
        <lane id=":1293038719_0_1" index="1" allow="private emergency authority army vip passenger hov taxi bus coach delivery truck trailer motorcycle evehicle custom1 custom2" speed="21.17" length="8.10" shape="15956.28,9578.41 15958.61,9578.05 15960.27,9578.19 15961.93,9578.37 15964.28,9578.11"/>
    </edge>
    <edge id=":1293082935_0" function="internal">
        <lane id=":1293082935_0_0" index="0" allow="private emergency authority army vip passenger hov taxi bus coach delivery truck trailer motorcycle evehicle custom1 custom2" speed="22.22" length="7.74" shape="13716.88,12366.38 13716.17,12368.55 13716.01,12370.15 13715.80,12371.73 13714.92,12373.81"/>
    </edge>
    <edge id=":1293132874_0" function="internal">
        <lane id=":1293132874_0_0" index="0" allow="private emergency authority army vip passenger hov taxi bus coach delivery truck trailer motorcycle evehicle custom1 custom2" speed="25.64" length="7.79" shape="13308.98,12857.28 13304.07,12863.33"/>
    </edge>
    <edge id=":1293132874_1" function="internal">
        <lane id=":1293132874_1_0" index="0" allow="private emergency authority army vip passenger hov taxi bus coach delivery truck trailer motorcycle evehicle custom1 custom2" speed="29.06" length="8.02" shape="13306.52,12855.24 13301.51,12861.30"/>
        <lane id=":1293132874_1_1" index="1" allow="private emergency authority army vip passenger hov taxi bus coach delivery truck trailer motorcycle evehicle custom1 custom2" speed="29.06" length="8.02" shape="13304.06,12853.19 13299.00,12859.31"/>
        <lane id=":1293132874_1_2" index="2" allow="private emergency authority army vip passenger hov taxi bus coach delivery truck trailer motorcycle evehicle custom1 custom2" speed="29.06" length="8.02" shape="13301.60,12851.14 13296.49,12857.32"/>
        <lane id=":1293132874_1_3" index="3" allow="private emergency authority army vip passenger hov taxi bus coach delivery truck trailer motorcycle evehicle custom1 custom2" speed="29.06" length="8.02" shape="13299.14,12849.09 13293.98,12855.33"/>
        <lane id=":1293132874_1_4" index="4" allow="private emergency authority army vip passenger hov taxi bus coach delivery truck trailer motorcycle evehicle custom1 custom2" speed="29.06" length="8.02" shape="13296.69,12847.05 13291.47,12853.34"/>
    </edge>
    <edge id=":1293139898_0" function="internal">
        <lane id=":1293139898_0_0" index="0" allow="private emergency authority army vip passenger hov taxi bus coach delivery truck trailer motorcycle evehicle custom1 custom2" speed="25.64" length="7.85" shape="13721.56,12182.18 13724.45,12174.89"/>
    </edge>
    <edge id=":1293139898_1" function="internal">
        <lane id=":1293139898_1_0" index="0" allow="private emergency authority army vip passenger hov taxi bus coach delivery truck trailer motorcycle evehicle custom1 custom2" speed="29.06" length="7.99" shape="13724.72,12183.38 13727.46,12175.97"/>
        <lane id=":1293139898_1_1" index="1" allow="private emergency authority army vip passenger hov taxi bus coach delivery truck trailer motorcycle evehicle custom1 custom2" speed="29.06" length="7.99" shape="13727.72,12184.52 13730.47,12177.05"/>
        <lane id=":1293139898_1_2" index="2" allow="private emergency authority army vip passenger hov taxi bus coach delivery truck trailer motorcycle evehicle custom1 custom2" speed="29.06" length="7.99" shape="13730.71,12185.65 13733.49,12178.13"/>
        <lane id=":1293139898_1_3" index="3" allow="private emergency authority army vip passenger hov taxi bus coach delivery truck trailer motorcycle evehicle custom1 custom2" speed="29.06" length="7.99" shape="13733.70,12186.78 13736.50,12179.20"/>
    </edge>
    <edge id=":1293139901_0" function="internal">
        <lane id=":1293139901_0_0" index="0" allow="private emergency authority army vip passenger hov taxi bus coach delivery truck trailer motorcycle evehicle custom1 custom2" speed="25.64" length="8.33" shape="13825.59,11918.37 13824.64,11926.65"/>
    </edge>
    <edge id=":1293139901_1" function="internal">
        <lane id=":1293139901_1_0" index="0" allow="private emergency authority army vip passenger hov taxi bus coach delivery truck trailer motorcycle evehicle custom1 custom2" speed="29.06" length="8.07" shape="13822.40,11918.06 13821.54,11926.24"/>
        <lane id=":1293139901_1_1" index="1" allow="private emergency authority army vip passenger hov taxi bus coach delivery truck trailer motorcycle evehicle custom1 custom2" speed="29.06" length="8.07" shape="13819.22,11917.75 13818.37,11925.83"/>
        <lane id=":1293139901_1_2" index="2" allow="private emergency authority army vip passenger hov taxi bus coach delivery truck trailer motorcycle evehicle custom1 custom2" speed="29.06" length="8.07" shape="13816.03,11917.44 13815.19,11925.41"/>
        <lane id=":1293139901_1_3" index="3" allow="private emergency authority army vip passenger hov taxi bus coach delivery truck trailer motorcycle evehicle custom1 custom2" speed="29.06" length="8.07" shape="13812.85,11917.13 13812.02,11924.99"/>
    </edge>
    <edge id=":1293139935_0" function="internal">
        <lane id=":1293139935_0_0" index="0" allow="private emergency authority army vip passenger hov taxi bus coach delivery truck trailer motorcycle evehicle custom1 custom2" speed="25.64" length="8.00" shape="13401.02,12746.08 13395.86,12752.19"/>
    </edge>
    <edge id=":1293139935_1" function="internal">
        <lane id=":1293139935_1_0" index="0" allow="private emergency authority army vip passenger hov taxi bus coach delivery truck trailer motorcycle evehicle custom1 custom2" speed="29.06" length="8.00" shape="13398.43,12743.97 13393.38,12750.17"/>
        <lane id=":1293139935_1_1" index="1" allow="private emergency authority army vip passenger hov taxi bus coach delivery truck trailer motorcycle evehicle custom1 custom2" speed="29.06" length="8.00" shape="13395.95,12741.95 13390.90,12748.15"/>
        <lane id=":1293139935_1_2" index="2" allow="private emergency authority army vip passenger hov taxi bus coach delivery truck trailer motorcycle evehicle custom1 custom2" speed="29.06" length="8.00" shape="13393.47,12739.93 13388.41,12746.13"/>
        <lane id=":1293139935_1_3" index="3" allow="private emergency authority army vip passenger hov taxi bus coach delivery truck trailer motorcycle evehicle custom1 custom2" speed="29.06" length="8.00" shape="13390.98,12737.91 13385.93,12744.11"/>
        <lane id=":1293139935_1_4" index="4" allow="private emergency authority army vip passenger hov taxi bus coach delivery truck trailer motorcycle evehicle custom1 custom2" speed="29.06" length="8.00" shape="13388.50,12735.88 13383.45,12742.09"/>
    </edge>
    <edge id=":1293230870_0" function="internal">
        <lane id=":1293230870_0_0" index="0" allow="private emergency authority army vip passenger hov taxi bus coach delivery truck trailer motorcycle evehicle custom1 custom2" speed="18.93" length="8.24" shape="18158.23,8778.55 18156.25,8777.12 18154.85,8776.19 18153.39,8775.37 18151.22,8774.25"/>
    </edge>
    <edge id=":1293230870_1" function="internal">
        <lane id=":1293230870_1_0" index="0" disallow="tram rail_urban rail rail_electric rail_fast ship" speed="15.65" length="8.51" shape="18160.11,8775.96 18153.17,8771.16"/>
        <lane id=":1293230870_1_1" index="1" disallow="tram rail_urban rail rail_electric rail_fast ship" speed="15.65" length="8.51" shape="18161.99,8773.37 18154.93,8768.49"/>
    </edge>
    <edge id=":1335885922_0" function="internal">