<?xml version="1.0" encoding="UTF-8"?>

<!-- generated on Mon 08 Aug 2022 02:39:02 PM PDT by Eclipse SUMO netedit Version 1.4.0
<configuration xmlns:xsi="http://www.w3.org/2001/XMLSchema-instance" xsi:noNamespaceSchemaLocation="http://sumo.dlr.de/xsd/netconvertConfiguration.xsd">

    <input>
        <sumo-net-file value="/home/songanz/flow_evaluation/sumo_env_config/sumo_CA_car_small/sID_0.net.xml"/>
    </input>

    <output>
        <output-file value="/home/songanz/flow_evaluation/sumo_env_config/sumo_CA_car_small/sID_0.net.xml"/>
        <output.street-names value="true"/>
    </output>

    <processing>
        <geometry.min-radius.fix.railways value="false"/>
        <geometry.max-grade.fix value="false"/>
        <offset.disable-normalization value="true"/>
        <lefthand value="false"/>
    </processing>

    <junctions>
        <no-turnarounds value="true"/>
        <junctions.corner-detail value="5"/>
        <junctions.limit-turn-speed value="5.5"/>
        <rectangular-lane-cut value="false"/>
    </junctions>

    <pedestrian>
        <walkingareas value="false"/>
    </pedestrian>

    <report>
        <aggregate-warnings value="5"/>
    </report>

</configuration>
-->

<net version="1.3" junctionCornerDetail="5" limitTurnSpeed="5.50" xmlns:xsi="http://www.w3.org/2001/XMLSchema-instance" xsi:noNamespaceSchemaLocation="http://sumo.dlr.de/xsd/net_file.xsd">

    <location netOffset="-548902.15,-4134743.37" convBoundary="21793.96,3349.46,26004.55,6060.07" origBoundary="-122.445904,37.357867,-122.151212,37.643804" projParameter="+proj=utm +zone=10 +ellps=WGS84 +datum=WGS84 +units=m +no_defs"/>

    <type id="highway.bridleway" priority="1" numLanes="1" speed="2.78" allow="pedestrian" oneway="1" width="2.00"/>
    <type id="highway.bus_guideway" priority="1" numLanes="1" speed="27.78" allow="bus" oneway="1"/>
    <type id="highway.cycleway" priority="1" numLanes="1" speed="8.33" allow="bicycle" oneway="0" width="1.00"/>
    <type id="highway.footway" priority="1" numLanes="1" speed="2.78" allow="pedestrian" oneway="1" width="2.00"/>
    <type id="highway.ford" priority="1" numLanes="1" speed="2.78" allow="army" oneway="0"/>
    <type id="highway.living_street" priority="2" numLanes="1" speed="2.78" disallow="tram rail_urban rail rail_electric rail_fast ship" oneway="0"/>
    <type id="highway.motorway" priority="14" numLanes="2" speed="39.44" allow="private emergency authority army vip passenger hov taxi bus coach delivery truck trailer motorcycle evehicle custom1 custom2" oneway="1"/>
    <type id="highway.motorway_link" priority="9" numLanes="1" speed="22.22" allow="private emergency authority army vip passenger hov taxi bus coach delivery truck trailer motorcycle evehicle custom1 custom2" oneway="1"/>
    <type id="highway.path" priority="1" numLanes="1" speed="2.78" allow="pedestrian bicycle" oneway="1" width="2.00"/>
    <type id="highway.pedestrian" priority="1" numLanes="1" speed="2.78" allow="pedestrian" oneway="1" width="2.00"/>
    <type id="highway.primary" priority="12" numLanes="2" speed="27.78" disallow="tram rail_urban rail rail_electric rail_fast ship" oneway="0"/>
    <type id="highway.primary_link" priority="7" numLanes="1" speed="22.22" disallow="tram rail_urban rail rail_electric rail_fast ship" oneway="0"/>
    <type id="highway.raceway" priority="15" numLanes="2" speed="83.33" allow="vip" oneway="0"/>
    <type id="highway.residential" priority="3" numLanes="1" speed="13.89" disallow="tram rail_urban rail rail_electric rail_fast ship" oneway="0"/>
    <type id="highway.secondary" priority="11" numLanes="1" speed="27.78" disallow="tram rail_urban rail rail_electric rail_fast ship" oneway="0"/>
    <type id="highway.secondary_link" priority="6" numLanes="1" speed="22.22" disallow="tram rail_urban rail rail_electric rail_fast ship" oneway="0"/>
    <type id="highway.service" priority="1" numLanes="1" speed="5.56" allow="pedestrian delivery bicycle" oneway="0"/>
    <type id="highway.stairs" priority="1" numLanes="1" speed="1.39" allow="pedestrian" oneway="1" width="2.00"/>
    <type id="highway.step" priority="1" numLanes="1" speed="1.39" allow="pedestrian" oneway="1" width="2.00"/>
    <type id="highway.steps" priority="1" numLanes="1" speed="1.39" allow="pedestrian" oneway="1" width="2.00"/>
    <type id="highway.tertiary" priority="10" numLanes="1" speed="22.22" disallow="tram rail_urban rail rail_electric rail_fast ship" oneway="0"/>
    <type id="highway.tertiary_link" priority="5" numLanes="1" speed="22.22" disallow="tram rail_urban rail rail_electric rail_fast ship" oneway="0"/>
    <type id="highway.track" priority="1" numLanes="1" speed="5.56" disallow="tram rail_urban rail rail_electric rail_fast ship" oneway="0"/>
    <type id="highway.trunk" priority="13" numLanes="2" speed="27.78" disallow="pedestrian bicycle tram rail_urban rail rail_electric rail_fast ship" oneway="0"/>
    <type id="highway.trunk_link" priority="8" numLanes="1" speed="22.22" disallow="pedestrian bicycle tram rail_urban rail rail_electric rail_fast ship" oneway="0"/>
    <type id="highway.unclassified" priority="4" numLanes="1" speed="13.89" disallow="tram rail_urban rail rail_electric rail_fast ship" oneway="0"/>
    <type id="highway.unsurfaced" priority="1" numLanes="1" speed="8.33" disallow="tram rail_urban rail rail_electric rail_fast ship" oneway="0"/>
    <type id="railway.highspeed" priority="21" numLanes="1" speed="69.44" allow="rail_fast" oneway="1"/>
    <type id="railway.light_rail" priority="19" numLanes="1" speed="27.78" allow="rail_urban" oneway="1"/>
    <type id="railway.preserved" priority="16" numLanes="1" speed="27.78" allow="rail" oneway="1"/>
    <type id="railway.rail" priority="20" numLanes="1" speed="44.44" allow="rail" oneway="1"/>
    <type id="railway.subway" priority="18" numLanes="1" speed="27.78" allow="rail_urban" oneway="1"/>
    <type id="railway.tram" priority="17" numLanes="1" speed="13.89" allow="tram" oneway="1"/>

    <edge id=":190091148_0" function="internal">
        <lane id=":190091148_0_0" index="0" allow="private emergency authority army vip passenger hov taxi bus coach delivery truck trailer motorcycle evehicle custom1 custom2" speed="22.22" length="9.21" shape="25223.01,3847.18 25217.57,3854.69"/>
        <lane id=":190091148_0_1" index="1" allow="private emergency authority army vip passenger hov taxi bus coach delivery truck trailer motorcycle evehicle custom1 custom2" speed="22.22" length="9.21" shape="25220.35,3845.40 25214.99,3852.80"/>
    </edge>
    <edge id=":190091148_2" function="internal">
        <lane id=":190091148_2_0" index="0" allow="private emergency authority army vip passenger hov taxi bus coach delivery truck trailer motorcycle evehicle custom1 custom2" speed="17.22" length="8.61" shape="25217.70,3843.62 25216.25,3845.71 25215.11,3847.05 25213.73,3848.15 25211.59,3849.52"/>
    </edge>
    <edge id=":239549786_0" function="internal">
        <lane id=":239549786_0_0" index="0" allow="private emergency authority army vip passenger hov taxi bus coach delivery truck trailer motorcycle evehicle custom1 custom2" speed="25.64" length="7.59" shape="22611.66,5697.89 22618.45,5694.50"/>
    </edge>
    <edge id=":239549786_1" function="internal">
        <lane id=":239549786_1_0" index="0" allow="private emergency authority army vip passenger hov taxi bus coach delivery truck trailer motorcycle evehicle custom1 custom2" speed="29.06" length="7.95" shape="22613.07,5700.83 22619.96,5697.32"/>
        <lane id=":239549786_1_1" index="1" allow="private emergency authority army vip passenger hov taxi bus coach delivery truck trailer motorcycle evehicle custom1 custom2" speed="29.06" length="7.95" shape="22614.46,5703.71 22621.48,5700.13"/>
        <lane id=":239549786_1_2" index="2" allow="private emergency authority army vip passenger hov taxi bus coach delivery truck trailer motorcycle evehicle custom1 custom2" speed="29.06" length="7.95" shape="22615.85,5706.59 22622.99,5702.95"/>
        <lane id=":239549786_1_3" index="3" allow="private emergency authority army vip passenger hov taxi bus coach delivery truck trailer motorcycle evehicle custom1 custom2" speed="29.06" length="7.95" shape="22617.24,5709.48 22624.51,5705.77"/>
    </edge>
    <edge id=":257567149_0" function="internal">
        <lane id=":257567149_0_0" index="0" allow="private emergency authority army vip passenger hov taxi bus coach delivery truck trailer motorcycle evehicle custom1 custom2" speed="25.64" length="7.61" shape="22756.42,5606.81 22758.33,5605.60 22759.61,5604.73 22760.85,5603.80 22762.62,5602.40"/>
    </edge>
    <edge id=":257567149_1" function="internal">
        <lane id=":257567149_1_0" index="0" allow="private emergency authority army vip passenger hov taxi bus coach delivery truck trailer motorcycle evehicle custom1 custom2" speed="29.06" length="7.91" shape="22758.48,5609.60 22764.61,5604.90"/>
        <lane id=":257567149_1_1" index="1" allow="private emergency authority army vip passenger hov taxi bus coach delivery truck trailer motorcycle evehicle custom1 custom2" speed="29.06" length="7.91" shape="22760.37,5612.18 22766.61,5607.40"/>
        <lane id=":257567149_1_2" index="2" allow="private emergency authority army vip passenger hov taxi bus coach delivery truck trailer motorcycle evehicle custom1 custom2" speed="29.06" length="7.91" shape="22762.27,5614.76 22768.60,5609.91"/>
        <lane id=":257567149_1_3" index="3" allow="private emergency authority army vip passenger hov taxi bus coach delivery truck trailer motorcycle evehicle custom1 custom2" speed="29.06" length="7.91" shape="22764.17,5617.33 22770.60,5612.41"/>
    </edge>
    <edge id=":259148107_0" function="internal">
        <lane id=":259148107_0_0" index="0" allow="private emergency authority army vip passenger hov taxi bus coach delivery truck trailer motorcycle evehicle custom1 custom2" speed="22.22" length="9.23" shape="22301.67,5712.01 22304.36,5711.50 22306.22,5711.23 22308.09,5711.10 22310.82,5710.98"/>
    </edge>
    <edge id=":259148107_1" function="internal">
        <lane id=":259148107_1_0" index="0" allow="private emergency authority army vip passenger hov taxi bus coach delivery truck trailer motorcycle evehicle custom1 custom2" speed="22.22" length="8.63" shape="22302.29,5715.15 22304.80,5714.67 22306.54,5714.45 22308.30,5714.40 22310.86,5714.45"/>
    </edge>
    <edge id=":26308635#1-AddedOnRampNode_0" function="internal">
        <lane id=":26308635#1-AddedOnRampNode_0_0" index="0" allow="private emergency authority army vip passenger hov taxi bus coach delivery truck trailer motorcycle evehicle custom1 custom2" speed="29.06" length="8.00" shape="22699.21,5651.52 22705.85,5647.06"/>
        <lane id=":26308635#1-AddedOnRampNode_0_1" index="1" allow="private emergency authority army vip passenger hov taxi bus coach delivery truck trailer motorcycle evehicle custom1 custom2" speed="29.06" length="8.00" shape="22700.99,5654.18 22707.63,5649.71"/>
        <lane id=":26308635#1-AddedOnRampNode_0_2" index="2" allow="private emergency authority army vip passenger hov taxi bus coach delivery truck trailer motorcycle evehicle custom1 custom2" speed="29.06" length="8.00" shape="22702.77,5656.83 22709.41,5652.37"/>
        <lane id=":26308635#1-AddedOnRampNode_0_3" index="3" allow="private emergency authority army vip passenger hov taxi bus coach delivery truck trailer motorcycle evehicle custom1 custom2" speed="29.06" length="8.00" shape="22704.55,5659.49 22711.19,5655.03"/>
    </edge>
    <edge id=":27422574#1-AddedOffRampNode_0" function="internal">
        <lane id=":27422574#1-AddedOffRampNode_0_0" index="0" allow="private emergency authority army vip passenger hov taxi bus coach delivery truck trailer motorcycle evehicle custom1 custom2" speed="29.06" length="8.16" shape="22865.50,5565.45 22864.13,5567.55 22863.82,5569.41 22863.52,5571.28 22862.14,5573.38"/>
        <lane id=":27422574#1-AddedOffRampNode_0_1" index="1" allow="private emergency authority army vip passenger hov taxi bus coach delivery truck trailer motorcycle evehicle custom1 custom2" speed="29.06" length="8.16" shape="22865.50,5565.45 22859.87,5571.12"/>
        <lane id=":27422574#1-AddedOffRampNode_0_2" index="2" allow="private emergency authority army vip passenger hov taxi bus coach delivery truck trailer motorcycle evehicle custom1 custom2" speed="29.06" length="8.16" shape="22863.23,5563.20 22857.60,5568.87"/>
        <lane id=":27422574#1-AddedOffRampNode_0_3" index="3" allow="private emergency authority army vip passenger hov taxi bus coach delivery truck trailer motorcycle evehicle custom1 custom2" speed="29.06" length="8.16" shape="22860.96,5560.94 22855.32,5566.62"/>
        <lane id=":27422574#1-AddedOffRampNode_0_4" index="4" allow="private emergency authority army vip passenger hov taxi bus coach delivery truck trailer motorcycle evehicle custom1 custom2" speed="29.06" length="8.16" shape="22858.69,5558.69 22853.05,5564.37"/>
    </edge>
    <edge id=":27878358#1-AddedOnRampNode_0" function="internal">
        <lane id=":27878358#1-AddedOnRampNode_0_0" index="0" allow="private emergency authority army vip passenger hov taxi bus coach delivery truck trailer motorcycle evehicle custom1 custom2" speed="22.22" length="8.00" shape="24854.63,3918.47 24847.17,3921.36"/>
    </edge>
    <edge id=":27878383#1-AddedOnRampNode_0" function="internal">
        <lane id=":27878383#1-AddedOnRampNode_0_0" index="0" allow="private emergency authority army vip passenger hov taxi bus coach delivery truck trailer motorcycle evehicle custom1 custom2" speed="22.22" length="8.00" shape="25485.48,3561.75 25493.45,3561.07"/>
        <lane id=":27878383#1-AddedOnRampNode_0_1" index="1" allow="private emergency authority army vip passenger hov taxi bus coach delivery truck trailer motorcycle evehicle custom1 custom2" speed="22.22" length="8.00" shape="25485.80,3564.93 25493.78,3564.26"/>
    </edge>
    <edge id=":301049385_0" function="internal">
        <lane id=":301049385_0_0" index="0" disallow="pedestrian bicycle tram rail_urban rail rail_electric rail_fast ship" speed="21.71" length="0.29" shape="25131.47,3516.85 25131.55,3517.18"/>
        <lane id=":301049385_0_1" index="1" disallow="pedestrian bicycle tram rail_urban rail rail_electric rail_fast ship" speed="21.71" length="0.29" shape="25128.35,3517.55 25128.42,3517.84"/>
        <lane id=":301049385_0_2" index="2" disallow="pedestrian bicycle tram rail_urban rail rail_electric rail_fast ship" speed="21.71" length="0.29" shape="25125.23,3518.25 25125.28,3518.49"/>
    </edge>
    <edge id=":301049423_0" function="internal">
        <lane id=":301049423_0_0" index="0" allow="private emergency authority army vip passenger hov taxi bus coach delivery truck trailer motorcycle evehicle custom1 custom2" speed="29.06" length="8.15" shape="25119.61,3691.87 25121.52,3690.36 25122.61,3689.03 25123.71,3687.73 25125.67,3686.30"/>
        <lane id=":301049423_0_1" index="1" allow="private emergency authority army vip passenger hov taxi bus coach delivery truck trailer motorcycle evehicle custom1 custom2" speed="29.06" length="8.15" shape="25119.61,3691.87 25121.77,3690.79 25123.42,3690.41 25125.08,3690.06 25127.29,3689.06"/>
        <lane id=":301049423_0_2" index="2" allow="private emergency authority army vip passenger hov taxi bus coach delivery truck trailer motorcycle evehicle custom1 custom2" speed="29.06" length="8.15" shape="25121.33,3694.57 25123.45,3693.51 25125.08,3693.15 25126.73,3692.81 25128.90,3691.82"/>
        <lane id=":301049423_0_3" index="3" allow="private emergency authority army vip passenger hov taxi bus coach delivery truck trailer motorcycle evehicle custom1 custom2" speed="29.06" length="8.15" shape="25123.05,3697.27 25125.14,3696.23 25126.75,3695.88 25128.37,3695.55 25130.51,3694.59"/>
    </edge>
    <edge id=":301503442_0" function="internal">
        <lane id=":301503442_0_0" index="0" allow="private emergency authority army vip passenger hov taxi bus coach delivery truck trailer motorcycle evehicle custom1 custom2" speed="11.12" length="21.10" shape="25130.70,3670.58 25130.92,3666.54 25133.22,3662.53 25137.60,3658.54 25144.05,3654.58"/>
        <lane id=":301503442_0_1" index="1" allow="private emergency authority army vip passenger hov taxi bus coach delivery truck trailer motorcycle evehicle custom1 custom2" speed="10.59" length="21.10" shape="25133.84,3669.95 25134.25,3666.95 25136.64,3663.70 25141.00,3660.20 25147.35,3656.45"/>
    </edge>
    <edge id=":301503442_2" function="internal">
        <lane id=":301503442_2_0" index="0" disallow="pedestrian bicycle tram rail_urban rail rail_electric rail_fast ship" speed="15.65" length="18.00" shape="25136.97,3669.32 25136.42,3663.51 25136.87,3658.93 25137.48,3655.06 25137.45,3651.42"/>
    </edge>
    <edge id=":301503449_0" function="internal">
        <lane id=":301503449_0_0" index="0" allow="private emergency authority army vip passenger hov taxi bus coach delivery truck trailer motorcycle evehicle custom1 custom2" speed="22.29" length="8.00" shape="25182.86,3944.23 25180.97,3936.46"/>
    </edge>
    <edge id=":301503449_1" function="internal">
        <lane id=":301503449_1_0" index="0" disallow="pedestrian bicycle tram rail_urban rail rail_electric rail_fast ship" speed="19.00" length="8.15" shape="25185.99,3943.54 25184.40,3935.47"/>
        <lane id=":301503449_1_1" index="1" disallow="pedestrian bicycle tram rail_urban rail rail_electric rail_fast ship" speed="19.00" length="8.15" shape="25189.11,3942.85 25187.55,3934.93"/>
    </edge>
    <edge id=":306085327_0" function="internal">
        <lane id=":306085327_0_0" index="0" disallow="pedestrian bicycle tram rail_urban rail rail_electric rail_fast ship" speed="6.37" length="9.04" shape="25192.41,3857.84 25189.96,3858.38 25188.34,3859.58 25187.52,3861.42 25187.52,3863.92"/>
    </edge>
    <edge id=":306085327_1" function="internal">
        <lane id=":306085327_1_0" index="0" disallow="pedestrian bicycle tram rail_urban rail rail_electric rail_fast ship" speed="11.87" length="13.57" shape="25192.41,3857.84 25189.51,3857.67 25186.53,3856.72 25183.46,3855.00 25180.31,3852.50"/>
    </edge>
    <edge id=":306085327_2" function="internal">
        <lane id=":306085327_2_0" index="0" disallow="pedestrian bicycle tram rail_urban rail rail_electric rail_fast ship" speed="15.65" length="14.33" shape="25185.25,3849.77 25187.52,3863.92"/>
    </edge>
    <edge id=":306085328_0" function="internal">
        <lane id=":306085328_0_0" index="0" disallow="pedestrian bicycle tram rail_urban rail rail_electric rail_fast ship" speed="15.65" length="8.84" shape="25162.11,3824.56 25159.94,3815.85"/>
        <lane id=":306085328_0_1" index="1" disallow="pedestrian bicycle tram rail_urban rail rail_electric rail_fast ship" speed="15.65" length="8.84" shape="25165.18,3823.66 25163.08,3815.21"/>
    </edge>
    <edge id=":306085328_2" function="internal">
        <lane id=":306085328_2_0" index="0" disallow="pedestrian bicycle tram rail_urban rail rail_electric rail_fast ship" speed="18.93" length="8.38" shape="25168.87,3822.49 25167.81,3820.24 25167.17,3818.66 25166.72,3817.01 25166.22,3814.58"/>
    </edge>
    <edge id=":306085478_0" function="internal">
        <lane id=":306085478_0_0" index="0" allow="private emergency authority army vip passenger hov taxi bus coach delivery truck trailer motorcycle evehicle custom1 custom2" speed="22.22" length="8.23" shape="25080.73,3539.99 25085.56,3533.33"/>
    </edge>
    <edge id=":306085478_1" function="internal">
        <lane id=":306085478_1_0" index="0" allow="private emergency authority army vip passenger hov taxi bus coach delivery truck trailer motorcycle evehicle custom1 custom2" speed="22.22" length="8.16" shape="25083.24,3541.98 25084.75,3540.08 25085.81,3538.81 25086.93,3537.59 25088.61,3535.85"/>
    </edge>
    <edge id=":30677839_0" function="internal">
        <lane id=":30677839_0_0" index="0" allow="private emergency authority army vip passenger hov taxi bus coach delivery truck trailer motorcycle evehicle custom1 custom2" speed="25.64" length="14.33" shape="25675.01,3578.04 25670.80,3579.01 25667.82,3579.22 25664.82,3579.36 25660.55,3580.10"/>
        <lane id=":30677839_0_1" index="1" allow="private emergency authority army vip passenger hov taxi bus coach delivery truck trailer motorcycle evehicle custom1 custom2" speed="25.64" length="14.33" shape="25674.08,3574.97 25670.05,3575.90 25667.20,3576.08 25664.33,3576.18 25660.24,3576.88"/>
    </edge>
    <edge id=":30677839_2" function="internal">
        <lane id=":30677839_2_0" index="0" allow="private emergency authority army vip passenger hov taxi bus coach delivery truck trailer motorcycle evehicle custom1 custom2" speed="29.06" length="12.91" shape="25673.15,3571.91 25669.45,3572.63 25666.82,3572.48 25664.15,3572.18 25660.34,3572.44"/>
    </edge>
    <edge id=":30677839_3" function="internal">
        <lane id=":30677839_3_0" index="0" allow="private emergency authority army vip passenger hov taxi bus coach delivery truck trailer motorcycle evehicle custom1 custom2" speed="18.34" length="11.57" shape="25672.23,3568.85 25668.94,3569.74 25666.60,3570.02 25664.23,3569.83 25660.85,3569.28"/>
    </edge>
    <edge id=":30677839_4" function="internal">
        <lane id=":30677839_4_0" index="0" allow="private emergency authority army vip passenger hov taxi bus coach delivery truck trailer motorcycle evehicle custom1 custom2" speed="17.16" length="10.11" shape="25671.30,3565.79 25668.43,3566.56 25666.38,3566.79 25664.31,3566.61 25661.35,3566.12"/>
    </edge>
    <edge id=":30677846_0" function="internal">
        <lane id=":30677846_0_0" index="0" allow="private emergency authority army vip passenger hov taxi bus coach delivery truck trailer motorcycle evehicle custom1 custom2" speed="25.64" length="10.15" shape="24765.50,3949.41 24762.67,3950.36 24760.70,3950.98 24758.70,3951.52 24755.76,3952.22"/>
    </edge>
    <edge id=":30677846_1" function="internal">
        <lane id=":30677846_1_0" index="0" allow="private emergency authority army vip passenger hov taxi bus coach delivery truck trailer motorcycle evehicle custom1 custom2" speed="29.06" length="9.30" shape="24764.73,3945.77 24761.96,3947.04 24760.01,3947.81 24758.00,3948.39 24755.03,3949.10"/>
        <lane id=":30677846_1_1" index="1" allow="private emergency authority army vip passenger hov taxi bus coach delivery truck trailer motorcycle evehicle custom1 custom2" speed="29.06" length="9.30" shape="24763.39,3942.87 24760.79,3944.05 24758.97,3944.77 24757.09,3945.32 24754.31,3945.98"/>
        <lane id=":30677846_1_2" index="2" allow="private emergency authority army vip passenger hov taxi bus coach delivery truck trailer motorcycle evehicle custom1 custom2" speed="29.06" length="9.30" shape="24762.05,3939.96 24759.63,3941.07 24757.93,3941.74 24756.18,3942.25 24753.59,3942.87"/>
        <lane id=":30677846_1_3" index="3" allow="private emergency authority army vip passenger hov taxi bus coach delivery truck trailer motorcycle evehicle custom1 custom2" speed="29.06" length="9.30" shape="24760.70,3937.06 24758.46,3938.08 24756.89,3938.71 24755.26,3939.18 24752.87,3939.75"/>
    </edge>
    <edge id=":30677855_0" function="internal">
        <lane id=":30677855_0_0" index="0" allow="private emergency authority army vip passenger hov taxi bus coach delivery truck trailer motorcycle evehicle custom1 custom2" speed="25.64" length="8.60" shape="22792.34,5634.21 22790.37,5635.84 22789.00,5636.92 22787.58,5637.93 22785.48,5639.38"/>
    </edge>
    <edge id=":30677855_1" function="internal">
        <lane id=":30677855_1_0" index="0" allow="private emergency authority army vip passenger hov taxi bus coach delivery truck trailer motorcycle evehicle custom1 custom2" speed="29.06" length="7.83" shape="22790.29,5631.75 22783.76,5636.86"/>
        <lane id=":30677855_1_1" index="1" allow="private emergency authority army vip passenger hov taxi bus coach delivery truck trailer motorcycle evehicle custom1 custom2" speed="29.06" length="7.83" shape="22788.23,5629.30 22781.95,5634.22"/>
        <lane id=":30677855_1_2" index="2" allow="private emergency authority army vip passenger hov taxi bus coach delivery truck trailer motorcycle evehicle custom1 custom2" speed="29.06" length="7.83" shape="22786.18,5626.84 22780.14,5631.58"/>
        <lane id=":30677855_1_3" index="3" allow="private emergency authority army vip passenger hov taxi bus coach delivery truck trailer motorcycle evehicle custom1 custom2" speed="29.06" length="7.83" shape="22784.13,5624.39 22778.34,5628.94"/>
    </edge>
    <edge id=":30677859_0" function="internal">
        <lane id=":30677859_0_0" index="0" allow="private emergency authority army vip passenger hov taxi bus coach delivery truck trailer motorcycle evehicle custom1 custom2" speed="25.64" length="8.01" shape="21999.42,5986.63 21991.88,5989.33"/>
    </edge>
    <edge id=":30677859_1" function="internal">
        <lane id=":30677859_1_0" index="0" allow="private emergency authority army vip passenger hov taxi bus coach delivery truck trailer motorcycle evehicle custom1 custom2" speed="29.06" length="8.00" shape="21998.17,5983.44 21990.72,5986.35"/>
        <lane id=":30677859_1_1" index="1" allow="private emergency authority army vip passenger hov taxi bus coach delivery truck trailer motorcycle evehicle custom1 custom2" speed="29.06" length="8.00" shape="21997.01,5980.46 21989.56,5983.37"/>
        <lane id=":30677859_1_2" index="2" allow="private emergency authority army vip passenger hov taxi bus coach delivery truck trailer motorcycle evehicle custom1 custom2" speed="29.06" length="8.00" shape="21995.84,5977.48 21988.40,5980.39"/>
        <lane id=":30677859_1_3" index="3" allow="private emergency authority army vip passenger hov taxi bus coach delivery truck trailer motorcycle evehicle custom1 custom2" speed="29.06" length="8.00" shape="21994.68,5974.50 21987.23,5977.41"/>
    </edge>
    <edge id=":31053150_0" function="internal">
        <lane id=":31053150_0_0" index="0" allow="private emergency authority army vip passenger hov taxi bus coach delivery truck trailer motorcycle evehicle custom1 custom2" speed="25.64" length="8.69" shape="21881.01,5988.04 21889.19,5985.09"/>
    </edge>
    <edge id=":31053150_1" function="internal">
        <lane id=":31053150_1_0" index="0" allow="private emergency authority army vip passenger hov taxi bus coach delivery truck trailer motorcycle evehicle custom1 custom2" speed="29.06" length="8.32" shape="21882.17,5991.02 21890.14,5987.92"/>
        <lane id=":31053150_1_1" index="1" allow="private emergency authority army vip passenger hov taxi bus coach delivery truck trailer motorcycle evehicle custom1 custom2" speed="29.06" length="8.32" shape="21883.33,5994.00 21891.15,5990.95"/>
        <lane id=":31053150_1_2" index="2" allow="private emergency authority army vip passenger hov taxi bus coach delivery truck trailer motorcycle evehicle custom1 custom2" speed="29.06" length="8.32" shape="21884.49,5996.98 21892.17,5993.99"/>
        <lane id=":31053150_1_3" index="3" allow="private emergency authority army vip passenger hov taxi bus coach delivery truck trailer motorcycle evehicle custom1 custom2" speed="29.06" length="8.32" shape="21885.65,5999.97 21893.19,5997.03"/>
    </edge>
    <edge id=":31053155_0" function="internal">
        <lane id=":31053155_0_0" index="0" allow="private emergency authority army vip passenger hov taxi bus coach delivery truck trailer motorcycle evehicle custom1 custom2" speed="29.06" length="1.64" shape="23134.81,5167.21 23133.70,5166.03"/>
        <lane id=":31053155_0_1" index="1" allow="private emergency authority army vip passenger hov taxi bus coach delivery truck trailer motorcycle evehicle custom1 custom2" speed="29.06" length="1.64" shape="23137.30,5169.21 23136.24,5167.97"/>
        <lane id=":31053155_0_2" index="2" allow="private emergency authority army vip passenger hov taxi bus coach delivery truck trailer motorcycle evehicle custom1 custom2" speed="29.06" length="1.64" shape="23139.79,5171.22 23138.78,5169.92"/>
        <lane id=":31053155_0_3" index="3" allow="private emergency authority army vip passenger hov taxi bus coach delivery truck trailer motorcycle evehicle custom1 custom2" speed="29.06" length="1.64" shape="23142.28,5173.23 23141.32,5171.87"/>
    </edge>
    <edge id=":3236404451_0" function="internal">
        <lane id=":3236404451_0_0" index="0" disallow="pedestrian bicycle tram rail_urban rail rail_electric rail_fast ship" speed="15.65" length="11.11" shape="25115.69,3525.36 25113.73,3514.38"/>
        <lane id=":3236404451_0_1" index="1" disallow="pedestrian bicycle tram rail_urban rail rail_electric rail_fast ship" speed="15.65" length="11.11" shape="25118.83,3524.75 25116.89,3513.86"/>
    </edge>
    <edge id=":3236404451_2" function="internal">
        <lane id=":3236404451_2_0" index="0" disallow="pedestrian bicycle tram rail_urban rail rail_electric rail_fast ship" speed="6.41" length="9.04" shape="25109.02,3520.64 25111.42,3520.00 25113.01,3518.75 25113.78,3516.87 25113.73,3514.38"/>
    </edge>
    <edge id=":336129305_0" function="internal">
        <lane id=":336129305_0_0" index="0" disallow="pedestrian bicycle tram rail_urban rail rail_electric rail_fast ship" speed="7.10" length="20.74" shape="25109.59,3479.96 25109.58,3471.94 25109.86,3464.87 25110.56,3460.66 25111.81,3461.24"/>
    </edge>
    <edge id=":336129305_1" function="internal">
        <lane id=":336129305_1_0" index="0" disallow="pedestrian bicycle tram rail_urban rail rail_electric rail_fast ship" speed="6.63" length="17.83" shape="25112.79,3479.92 25108.88,3462.53"/>
    </edge>
    <edge id=":336129305_2" function="internal">